Circuit: * C:\Users\tomsa\Documents\SturcturedElectronics2021\Stuctured Electronic Design - Design Team 3\cir\assignment1 - DriveCapability.asc

Ignoring BSIM parameter XL
Ignoring BSIM parameter XW
Warning: Pd = 0 is less than W.
Warning: Ps = 0 is less than W.

Date: Sat Nov 27 12:36:18 2021
Total elapsed time: 0.047 seconds.

tnom = 27
temp = 27
method = trap
totiter = 288
traniter = 0
tranpoints = 0
accept = 0
rejected = 0
matrix size = 6
fillins = 1
solver = Normal
Matrix Compiler1: 200 bytes object code size  0.2/0.1/[0.1]
Matrix Compiler2: 394 bytes object code size  0.1/0.1/[0.0]

