Circuit: * E:\Universiteit\Master\7 Q2 - 2021\EE4109-Structured-Electronic-Design\cir\Draft1.asc

Error on line 6 : q2 n001 n006 n007 0 2n3904
	 Unable to find definition of model "2n3904"
Error on line 8 : q3 n002 n004 0 0 npn
	 Unable to find definition of model "npn"
Error on line 13 : m1 n001 n002 n005 n005 pmos
	 Unable to find definition of model ""
Direct Newton iteration for .op point succeeded.

Date: Sat Dec 18 12:48:54 2021
Total elapsed time: 2.914 seconds.

tnom = 27
temp = 27
method = modified trap
totiter = 2213
traniter = 2202
tranpoints = 1076
accept = 1070
rejected = 6
matrix size = 9
fillins = 0
solver = Normal
Matrix Compiler1: 350 bytes object code size  0.2/0.1/[0.1]
Matrix Compiler2: off  [0.1]/0.1/0.1

