Circuit: * E:\Universiteit\Master\7 Q2 - 2021\EE4109-Structured-Electronic-Design\cir\Biasing\BiasingStep2.asc

Ignoring BSIM parameter XL
Ignoring BSIM parameter XW
Ignoring BSIM parameter XL
Ignoring BSIM parameter XW
Warning: Pd = 0 is less than W.
Warning: Ps = 0 is less than W.
Warning: Pd = 0 is less than W.
Warning: Ps = 0 is less than W.
Warning: Pd = 0 is less than W.
Warning: Ps = 0 is less than W.
Warning: Pd = 0 is less than W.
Warning: Ps = 0 is less than W.
Warning: Pd = 0 is less than W.
Warning: Ps = 0 is less than W.
Direct Newton iteration failed to find .op point.  (Use ".option noopiter" to skip.)
Starting Gmin stepping
Gmin = 10
Gmin = 1.07374
Gmin = 0.115292
Gmin = 0.0123794
Gmin = 0.00132923
Gmin = 0.000142725
Gmin = 1.5325e-005
Gmin = 1.6455e-006
Gmin = 1.76685e-007
Gmin = 1.89714e-008
Gmin = 2.03704e-009
Gmin = 2.18725e-010
Gmin = 2.34854e-011
Gmin = 2.52173e-012
Gmin = 2.70769e-013
Gmin = 0
Gmin stepping succeeded in finding the operating point.


Date: Tue Jan 11 16:59:25 2022
Total elapsed time: 0.427 seconds.

tnom = 27
temp = 27
method = modified trap
totiter = 3793
traniter = 3368
tranpoints = 1634
accept = 1631
rejected = 3
matrix size = 25
fillins = 5
solver = Normal
Matrix Compiler1: 1.39 KB object code size  0.5/0.3/[0.2]
Matrix Compiler2: 2.12 KB object code size  0.4/0.3/[0.2]

